Circuit: * C:\marc\developpement\vmc et tempo bus can\LTspice\TA12 - 2.asc

Direct Newton iteration for .op point succeeded.

Date: Sun Oct 27 10:19:50 2019
Total elapsed time: 0.156 seconds.

tnom = 27
temp = 27
method = modified trap
totiter = 2085
traniter = 2082
tranpoints = 1042
accept = 1042
rejected = 0
matrix size = 5
fillins = 0
solver = Normal
Matrix Compiler1: 150 bytes object code size  0.2/0.2/[0.1]
Matrix Compiler2: 321 bytes object code size  0.1/0.2/[0.1]

