Circuit: * C:\marc\developpement\vmc et tempo bus can\LTspice\TA12.asc

WARNING: Less than two connections to node N005.  This node is used by D1.
WARNING: Less than two connections to node N003.  This node is used by D2.
.OP point found by inspection.

Date: Sun Oct 27 16:18:09 2019
Total elapsed time: 0.228 seconds.

tnom = 27
temp = 27
method = modified trap
totiter = 2086
traniter = 2086
tranpoints = 1044
accept = 1044
rejected = 0
matrix size = 7
fillins = 0
solver = Normal
Matrix Compiler1: 304 bytes object code size  0.3/0.3/[0.2]
Matrix Compiler2: 481 bytes object code size  0.2/0.3/[0.1]

